<?xml version="1.0" encoding="UTF-8"?>

<!-- generated on 2023-10-24 13:39:05 by Eclipse SUMO netedit Version 1.12.0
-->

<routes xmlns:xsi="http://www.w3.org/2001/XMLSchema-instance" xsi:noNamespaceSchemaLocation="http://sumo.dlr.de/xsd/routes_file.xsd">
    <vType id="bicycle" vClass="bicycle"/>
    <vType id="bus" vClass="bus"/>
    <vType id="passenger" vClass="passenger"/>
    <vType id="pedestrian" vClass="pedestrian"/>
    <vType id="private" vClass="private"/>
    <flow id="-221193362#2_-369126268#0" type="bicycle" begin="0.00" color="yellow" fromJunction="9402040184" toJunction="3906401873" end="7200.00" vehsPerHour="1.00"/>
    <flow id="-221193362#2_-418245480#2" type="bicycle" begin="0.00" color="yellow" fromJunction="9402040184" toJunction="9402688180" end="7200.00" vehsPerHour="1.00"/>
    <flow id="-221193362#2_-572535366#0" type="bicycle" begin="0.00" color="yellow" fromJunction="9402040184" toJunction="5500397798" end="7200.00" vehsPerHour="1.00"/>
    <flow id="-221193362#2_-835970515#1" type="bicycle" begin="0.00" color="yellow" fromJunction="9402040184" toJunction="3786186993" end="7200.00" vehsPerHour="1.00"/>
    <flow id="-221193362#2_-860651480#1" type="bicycle" begin="0.00" color="yellow" fromJunction="9402040184" toJunction="5640598882" end="7200.00" vehsPerHour="1.00"/>
    <flow id="-221193362#2_154326129#2" type="bicycle" begin="0.00" color="yellow" fromJunction="9402040184" toJunction="3227987100" end="7200.00" vehsPerHour="1.00"/>
    <flow id="-221193362#2_171875840#2" type="bicycle" begin="0.00" color="yellow" fromJunction="9402040184" toJunction="3299570685" end="7200.00" vehsPerHour="1.00"/>
    <flow id="-221193362#2_221193362#2" type="bicycle" begin="0.00" color="yellow" fromJunction="9402040184" toJunction="9402040184" end="7200.00" vehsPerHour="1.00"/>
    <flow id="-221193362#2_251549522" type="bicycle" begin="0.00" color="yellow" fromJunction="9402040184" toJunction="2334311404" end="7200.00" vehsPerHour="1.00"/>
    <flow id="-221193362#2_528541987" type="bicycle" begin="0.00" color="yellow" fromJunction="9402040184" toJunction="4453920661" end="7200.00" vehsPerHour="1.00"/>
    <flow id="-221193362#2_758523493" type="bicycle" begin="0.00" color="yellow" fromJunction="9402040184" toJunction="6934116535" end="7200.00" vehsPerHour="1.00"/>
    <flow id="-221193362#2_860651478#1" type="bicycle" begin="0.00" color="yellow" fromJunction="9402040184" toJunction="8265965902" end="7200.00" vehsPerHour="1.00"/>
    <flow id="-251549522_-369126268#0" type="bicycle" begin="0.00" color="yellow" fromJunction="2334311404" toJunction="3906401873" end="7200.00" vehsPerHour="1.00"/>
    <flow id="-251549522_-418245480#2" type="bicycle" begin="0.00" color="yellow" fromJunction="2334311404" toJunction="9402688180" end="7200.00" vehsPerHour="1.00"/>
    <flow id="-251549522_-572535366#0" type="bicycle" begin="0.00" color="yellow" fromJunction="2334311404" toJunction="5500397798" end="7200.00" vehsPerHour="1.00"/>
    <flow id="-251549522_-835970515#1" type="bicycle" begin="0.00" color="yellow" fromJunction="2334311404" toJunction="3786186993" end="7200.00" vehsPerHour="1.00"/>
    <flow id="-251549522_-860651480#1" type="bus" begin="0.00" color="yellow" fromJunction="2334311404" toJunction="5640598882" end="7200.00" vehsPerHour="1.00"/>
    <flow id="-251549522_154326129#2" type="bus" begin="0.00" color="yellow" fromJunction="2334311404" toJunction="3227987100" end="7200.00" vehsPerHour="1.00"/>
    <flow id="-251549522_171875840#2" type="bus" begin="0.00" color="yellow" fromJunction="2334311404" toJunction="3299570685" end="7200.00" vehsPerHour="1.00"/>
    <flow id="-251549522_221193362#2" type="bicycle" begin="0.00" color="yellow" fromJunction="2334311404" toJunction="9402040184" end="7200.00" vehsPerHour="1.00"/>
    <flow id="-251549522_251549522" type="bus" begin="0.00" color="yellow" fromJunction="2334311404" toJunction="2334311404" end="7200.00" vehsPerHour="1.00"/>
    <flow id="-251549522_323157164#1" type="pedestrian" begin="0.00" color="yellow" fromJunction="2334311404" toJunction="3299515268" end="7200.00" vehsPerHour="1.00"/>
    <flow id="-251549522_528541987" type="bicycle" begin="0.00" color="yellow" fromJunction="2334311404" toJunction="4453920661" end="7200.00" vehsPerHour="1.00"/>
    <flow id="-251549522_758523493" type="bicycle" begin="0.00" color="yellow" fromJunction="2334311404" toJunction="6934116535" end="7200.00" vehsPerHour="1.00"/>
    <flow id="-251549522_860651478#1" type="bicycle" begin="0.00" color="yellow" fromJunction="2334311404" toJunction="8265965902" end="7200.00" vehsPerHour="1.00"/>
    <flow id="-528541987_-369126268#0" type="bicycle" begin="0.00" color="yellow" fromJunction="4453920661" toJunction="3906401873" end="7200.00" vehsPerHour="1.00"/>
    <flow id="-528541987_-418245480#2" type="bicycle" begin="0.00" color="yellow" fromJunction="4453920661" toJunction="9402688180" end="7200.00" vehsPerHour="1.00"/>
    <flow id="-528541987_-572535366#0" type="bicycle" begin="0.00" color="yellow" fromJunction="4453920661" toJunction="5500397798" end="7200.00" vehsPerHour="1.00"/>
    <flow id="-528541987_-835970515#1" type="bicycle" begin="0.00" color="yellow" fromJunction="4453920661" toJunction="3786186993" end="7200.00" vehsPerHour="1.00"/>
    <flow id="-528541987_-860651480#1" type="bicycle" begin="0.00" color="yellow" fromJunction="4453920661" toJunction="5640598882" end="7200.00" vehsPerHour="1.00"/>
    <flow id="-528541987_154326129#2" type="bicycle" begin="0.00" color="yellow" fromJunction="4453920661" toJunction="3227987100" end="7200.00" vehsPerHour="1.00"/>
    <flow id="-528541987_171875840#2" type="bicycle" begin="0.00" color="yellow" fromJunction="4453920661" toJunction="3299570685" end="7200.00" vehsPerHour="1.00"/>
    <flow id="-528541987_221193362#2" type="bicycle" begin="0.00" color="yellow" fromJunction="4453920661" toJunction="9402040184" end="7200.00" vehsPerHour="1.00"/>
    <flow id="-528541987_251549522" type="bicycle" begin="0.00" color="yellow" fromJunction="4453920661" toJunction="2334311404" end="7200.00" vehsPerHour="1.00"/>
    <flow id="-528541987_323157164#1" type="pedestrian" begin="0.00" color="yellow" fromJunction="4453920661" toJunction="3299515268" end="7200.00" vehsPerHour="1.00"/>
    <flow id="-528541987_528541987" type="bicycle" begin="0.00" color="yellow" fromJunction="4453920661" toJunction="4453920661" end="7200.00" vehsPerHour="1.00"/>
    <flow id="-528541987_758523493" type="bicycle" begin="0.00" color="yellow" fromJunction="4453920661" toJunction="6934116535" end="7200.00" vehsPerHour="1.00"/>
    <flow id="-528541987_860651478#1" type="bicycle" begin="0.00" color="yellow" fromJunction="4453920661" toJunction="8265965902" end="7200.00" vehsPerHour="1.00"/>
    <flow id="-758523493_-369126268#0" type="bicycle" begin="0.00" color="yellow" fromJunction="6934116535" toJunction="3906401873" end="7200.00" vehsPerHour="1.00"/>
    <flow id="-758523493_-418245480#2" type="bicycle" begin="0.00" color="yellow" fromJunction="6934116535" toJunction="9402688180" end="7200.00" vehsPerHour="1.00"/>
    <flow id="-758523493_-572535366#0" type="bicycle" begin="0.00" color="yellow" fromJunction="6934116535" toJunction="5500397798" end="7200.00" vehsPerHour="1.00"/>
    <flow id="-758523493_-835970515#1" type="bicycle" begin="0.00" color="yellow" fromJunction="6934116535" toJunction="3786186993" end="7200.00" vehsPerHour="1.00"/>
    <flow id="-758523493_-860651480#1" type="bicycle" begin="0.00" color="yellow" fromJunction="6934116535" toJunction="5640598882" end="7200.00" vehsPerHour="1.00"/>
    <flow id="-758523493_154326129#2" type="bicycle" begin="0.00" color="yellow" fromJunction="6934116535" toJunction="3227987100" end="7200.00" vehsPerHour="1.00"/>
    <flow id="-758523493_171875840#2" type="bicycle" begin="0.00" color="yellow" fromJunction="6934116535" toJunction="3299570685" end="7200.00" vehsPerHour="1.00"/>
    <flow id="-758523493_221193362#2" type="bicycle" begin="0.00" color="yellow" fromJunction="6934116535" toJunction="9402040184" end="7200.00" vehsPerHour="1.00"/>
    <flow id="-758523493_251549522" type="bicycle" begin="0.00" color="yellow" fromJunction="6934116535" toJunction="2334311404" end="7200.00" vehsPerHour="1.00"/>
    <flow id="-758523493_528541987" type="bicycle" begin="0.00" color="yellow" fromJunction="6934116535" toJunction="4453920661" end="7200.00" vehsPerHour="1.00"/>
    <flow id="-758523493_758523493" type="bicycle" begin="0.00" color="yellow" fromJunction="6934116535" toJunction="6934116535" end="7200.00" vehsPerHour="1.00"/>
    <flow id="-758523493_860651478#1" type="bicycle" begin="0.00" color="yellow" fromJunction="6934116535" toJunction="8265965902" end="7200.00" vehsPerHour="1.00"/>
    <flow id="-860651478#1_-369126268#0" type="bicycle" begin="0.00" color="yellow" fromJunction="8265965902" toJunction="3906401873" end="7200.00" vehsPerHour="1.00"/>
    <flow id="-860651478#1_-418245480#2" type="bicycle" begin="0.00" color="yellow" fromJunction="8265965902" toJunction="9402688180" end="7200.00" vehsPerHour="1.00"/>
    <flow id="-860651478#1_-572535366#0" type="bicycle" begin="0.00" color="yellow" fromJunction="8265965902" toJunction="5500397798" end="7200.00" vehsPerHour="1.00"/>
    <flow id="-860651478#1_-835970515#1" type="bicycle" begin="0.00" color="yellow" fromJunction="8265965902" toJunction="3786186993" end="7200.00" vehsPerHour="1.00"/>
    <flow id="-860651478#1_-860651480#1" type="bicycle" begin="0.00" color="yellow" fromJunction="8265965902" toJunction="5640598882" end="7200.00" vehsPerHour="1.00"/>
    <flow id="-860651478#1_154326129#2" type="bicycle" begin="0.00" color="yellow" fromJunction="8265965902" toJunction="3227987100" end="7200.00" vehsPerHour="1.00"/>
    <flow id="-860651478#1_171875840#2" type="bicycle" begin="0.00" color="yellow" fromJunction="8265965902" toJunction="3299570685" end="7200.00" vehsPerHour="1.00"/>
    <flow id="-860651478#1_221193362#2" type="bicycle" begin="0.00" color="yellow" fromJunction="8265965902" toJunction="9402040184" end="7200.00" vehsPerHour="1.00"/>
    <flow id="-860651478#1_251549522" type="bicycle" begin="0.00" color="yellow" fromJunction="8265965902" toJunction="2334311404" end="7200.00" vehsPerHour="1.00"/>
    <flow id="-860651478#1_528541987" type="bicycle" begin="0.00" color="yellow" fromJunction="8265965902" toJunction="4453920661" end="7200.00" vehsPerHour="1.00"/>
    <flow id="-860651478#1_860651478#1" type="bicycle" begin="0.00" color="yellow" fromJunction="8265965902" toJunction="8265965902" end="7200.00" vehsPerHour="1.00"/>
    <flow id="316655569#0_-369126268#0" type="bicycle" begin="0.00" color="yellow" fromJunction="3227987093" toJunction="3906401873" end="7200.00" vehsPerHour="1.00"/>
    <flow id="316655569#0_-418245480#2" type="bicycle" begin="0.00" color="yellow" fromJunction="3227987093" toJunction="9402688180" end="7200.00" vehsPerHour="1.00"/>
    <flow id="316655569#0_-572535366#0" type="bicycle" begin="0.00" color="yellow" fromJunction="3227987093" toJunction="5500397798" end="7200.00" vehsPerHour="1.00"/>
    <flow id="316655569#0_-835970515#1" type="bicycle" begin="0.00" color="yellow" fromJunction="3227987093" toJunction="3786186993" end="7200.00" vehsPerHour="1.00"/>
    <flow id="316655569#0_-860651480#1" type="bus" begin="0.00" color="yellow" fromJunction="3227987093" toJunction="5640598882" end="7200.00" vehsPerHour="1.00"/>
    <flow id="316655569#0_154326129#2" type="bus" begin="0.00" color="yellow" fromJunction="3227987093" toJunction="3227987100" end="7200.00" vehsPerHour="1.00"/>
    <flow id="316655569#0_171875840#2" type="bus" begin="0.00" color="yellow" fromJunction="3227987093" toJunction="3299570685" end="7200.00" vehsPerHour="1.00"/>
    <flow id="316655569#0_221193362#2" type="bicycle" begin="0.00" color="yellow" fromJunction="3227987093" toJunction="9402040184" end="7200.00" vehsPerHour="1.00"/>
    <flow id="316655569#0_251549522" type="bus" begin="0.00" color="yellow" fromJunction="3227987093" toJunction="2334311404" end="7200.00" vehsPerHour="1.00"/>
    <flow id="316655569#0_323157164#1" type="pedestrian" begin="0.00" color="yellow" fromJunction="3227987093" toJunction="3299515268" end="7200.00" vehsPerHour="1.00"/>
    <flow id="316655569#0_528541987" type="bicycle" begin="0.00" color="yellow" fromJunction="3227987093" toJunction="4453920661" end="7200.00" vehsPerHour="1.00"/>
    <flow id="316655569#0_758523493" type="bicycle" begin="0.00" color="yellow" fromJunction="3227987093" toJunction="6934116535" end="7200.00" vehsPerHour="1.00"/>
    <flow id="316655569#0_860651478#1" type="bicycle" begin="0.00" color="yellow" fromJunction="3227987093" toJunction="8265965902" end="7200.00" vehsPerHour="1.00"/>
    <flow id="369126268#0_-369126268#0" type="bicycle" begin="0.00" color="yellow" fromJunction="3906401873" toJunction="3906401873" end="7200.00" vehsPerHour="1.00"/>
    <flow id="369126268#0_-418245480#2" type="bicycle" begin="0.00" color="yellow" fromJunction="3906401873" toJunction="9402688180" end="7200.00" vehsPerHour="1.00"/>
    <flow id="369126268#0_-572535366#0" type="bicycle" begin="0.00" color="yellow" fromJunction="3906401873" toJunction="5500397798" end="7200.00" vehsPerHour="1.00"/>
    <flow id="369126268#0_-835970515#1" type="bicycle" begin="0.00" color="yellow" fromJunction="3906401873" toJunction="3786186993" end="7200.00" vehsPerHour="1.00"/>
    <flow id="369126268#0_-860651480#1" type="bicycle" begin="0.00" color="yellow" fromJunction="3906401873" toJunction="5640598882" end="7200.00" vehsPerHour="1.00"/>
    <flow id="369126268#0_154326129#2" type="bicycle" begin="0.00" color="yellow" fromJunction="3906401873" toJunction="3227987100" end="7200.00" vehsPerHour="1.00"/>
    <flow id="369126268#0_171875840#2" type="bicycle" begin="0.00" color="yellow" fromJunction="3906401873" toJunction="3299570685" end="7200.00" vehsPerHour="1.00"/>
    <flow id="369126268#0_221193362#2" type="bicycle" begin="0.00" color="yellow" fromJunction="3906401873" toJunction="9402040184" end="7200.00" vehsPerHour="1.00"/>
    <flow id="369126268#0_251549522" type="bicycle" begin="0.00" color="yellow" fromJunction="3906401873" toJunction="2334311404" end="7200.00" vehsPerHour="1.00"/>
    <flow id="369126268#0_528541987" type="bicycle" begin="0.00" color="yellow" fromJunction="3906401873" toJunction="4453920661" end="7200.00" vehsPerHour="1.00"/>
    <flow id="369126268#0_758523493" type="bicycle" begin="0.00" color="yellow" fromJunction="3906401873" toJunction="6934116535" end="7200.00" vehsPerHour="1.00"/>
    <flow id="369126268#0_860651478#1" type="bicycle" begin="0.00" color="yellow" fromJunction="3906401873" toJunction="8265965902" end="7200.00" vehsPerHour="1.00"/>
    <flow id="370353865_-369126268#0" type="bicycle" begin="0.00" color="yellow" fromJunction="4510719711" toJunction="3906401873" end="7200.00" vehsPerHour="1.00"/>
    <flow id="370353865_-418245480#2" type="bicycle" begin="0.00" color="yellow" fromJunction="4510719711" toJunction="9402688180" end="7200.00" vehsPerHour="1.00"/>
    <flow id="370353865_-572535366#0" type="bicycle" begin="0.00" color="yellow" fromJunction="4510719711" toJunction="5500397798" end="7200.00" vehsPerHour="1.00"/>
    <flow id="370353865_-835970515#1" type="bicycle" begin="0.00" color="yellow" fromJunction="4510719711" toJunction="3786186993" end="7200.00" vehsPerHour="1.00"/>
    <flow id="370353865_-860651480#1" type="bus" begin="0.00" color="yellow" fromJunction="4510719711" toJunction="5640598882" end="7200.00" vehsPerHour="1.00"/>
    <flow id="370353865_154326129#2" type="bus" begin="0.00" color="yellow" fromJunction="4510719711" toJunction="3227987100" end="7200.00" vehsPerHour="1.00"/>
    <flow id="370353865_171875840#2" type="bus" begin="0.00" color="yellow" fromJunction="4510719711" toJunction="3299570685" end="7200.00" vehsPerHour="1.00"/>
    <flow id="370353865_221193362#2" type="bicycle" begin="0.00" color="yellow" fromJunction="4510719711" toJunction="9402040184" end="7200.00" vehsPerHour="1.00"/>
    <flow id="370353865_251549522" type="bus" begin="0.00" color="yellow" fromJunction="4510719711" toJunction="2334311404" end="7200.00" vehsPerHour="1.00"/>
    <flow id="370353865_323157164#1" type="pedestrian" begin="0.00" color="yellow" fromJunction="4510719711" toJunction="3299515268" end="7200.00" vehsPerHour="1.00"/>
    <flow id="370353865_528541987" type="bicycle" begin="0.00" color="yellow" fromJunction="4510719711" toJunction="4453920661" end="7200.00" vehsPerHour="1.00"/>
    <flow id="370353865_758523493" type="bicycle" begin="0.00" color="yellow" fromJunction="4510719711" toJunction="6934116535" end="7200.00" vehsPerHour="1.00"/>
    <flow id="370353865_860651478#1" type="bicycle" begin="0.00" color="yellow" fromJunction="4510719711" toJunction="8265965902" end="7200.00" vehsPerHour="1.00"/>
    <flow id="377216388#2_-860651480#1" type="pedestrian" begin="0.00" color="yellow" fromJunction="2577552401" toJunction="5640598882" end="7200.00" vehsPerHour="1.00"/>
    <flow id="377216388#2_154326129#2" type="pedestrian" begin="0.00" color="yellow" fromJunction="2577552401" toJunction="3227987100" end="7200.00" vehsPerHour="1.00"/>
    <flow id="377216388#2_171875840#2" type="pedestrian" begin="0.00" color="yellow" fromJunction="2577552401" toJunction="3299570685" end="7200.00" vehsPerHour="1.00"/>
    <flow id="377216388#2_251549522" type="pedestrian" begin="0.00" color="yellow" fromJunction="2577552401" toJunction="2334311404" end="7200.00" vehsPerHour="1.00"/>
    <flow id="377216388#2_323157164#1" type="pedestrian" begin="0.00" color="yellow" fromJunction="2577552401" toJunction="3299515268" end="7200.00" vehsPerHour="1.00"/>
    <flow id="377216388#2_528541987" type="pedestrian" begin="0.00" color="yellow" fromJunction="2577552401" toJunction="4453920661" end="7200.00" vehsPerHour="1.00"/>
    <flow id="418245480#2_-369126268#0" type="bicycle" begin="0.00" color="yellow" fromJunction="9402688180" toJunction="3906401873" end="7200.00" vehsPerHour="1.00"/>
    <flow id="418245480#2_-418245480#2" type="bicycle" begin="0.00" color="yellow" fromJunction="9402688180" toJunction="9402688180" end="7200.00" vehsPerHour="1.00"/>
    <flow id="418245480#2_-572535366#0" type="bicycle" begin="0.00" color="yellow" fromJunction="9402688180" toJunction="5500397798" end="7200.00" vehsPerHour="1.00"/>
    <flow id="418245480#2_-835970515#1" type="bicycle" begin="0.00" color="yellow" fromJunction="9402688180" toJunction="3786186993" end="7200.00" vehsPerHour="1.00"/>
    <flow id="418245480#2_-860651480#1" type="bicycle" begin="0.00" color="yellow" fromJunction="9402688180" toJunction="5640598882" end="7200.00" vehsPerHour="1.00"/>
    <flow id="418245480#2_154326129#2" type="bicycle" begin="0.00" color="yellow" fromJunction="9402688180" toJunction="3227987100" end="7200.00" vehsPerHour="1.00"/>
    <flow id="418245480#2_171875840#2" type="bicycle" begin="0.00" color="yellow" fromJunction="9402688180" toJunction="3299570685" end="7200.00" vehsPerHour="1.00"/>
    <flow id="418245480#2_221193362#2" type="bicycle" begin="0.00" color="yellow" fromJunction="9402688180" toJunction="9402040184" end="7200.00" vehsPerHour="1.00"/>
    <flow id="418245480#2_251549522" type="bicycle" begin="0.00" color="yellow" fromJunction="9402688180" toJunction="2334311404" end="7200.00" vehsPerHour="1.00"/>
    <flow id="418245480#2_528541987" type="bicycle" begin="0.00" color="yellow" fromJunction="9402688180" toJunction="4453920661" end="7200.00" vehsPerHour="1.00"/>
    <flow id="418245480#2_758523493" type="bicycle" begin="0.00" color="yellow" fromJunction="9402688180" toJunction="6934116535" end="7200.00" vehsPerHour="1.00"/>
    <flow id="418245480#2_860651478#1" type="bicycle" begin="0.00" color="yellow" fromJunction="9402688180" toJunction="8265965902" end="7200.00" vehsPerHour="1.00"/>
    <flow id="572535366#0_-369126268#0" type="bicycle" begin="0.00" color="yellow" fromJunction="5500397798" toJunction="3906401873" end="7200.00" vehsPerHour="1.00"/>
    <flow id="572535366#0_-418245480#2" type="bicycle" begin="0.00" color="yellow" fromJunction="5500397798" toJunction="9402688180" end="7200.00" vehsPerHour="1.00"/>
    <flow id="572535366#0_-572535366#0" type="bicycle" begin="0.00" color="yellow" fromJunction="5500397798" toJunction="5500397798" end="7200.00" vehsPerHour="1.00"/>
    <flow id="572535366#0_-835970515#1" type="bicycle" begin="0.00" color="yellow" fromJunction="5500397798" toJunction="3786186993" end="7200.00" vehsPerHour="1.00"/>
    <flow id="572535366#0_-860651480#1" type="bicycle" begin="0.00" color="yellow" fromJunction="5500397798" toJunction="5640598882" end="7200.00" vehsPerHour="1.00"/>
    <flow id="572535366#0_154326129#2" type="bicycle" begin="0.00" color="yellow" fromJunction="5500397798" toJunction="3227987100" end="7200.00" vehsPerHour="1.00"/>
    <flow id="572535366#0_171875840#2" type="bicycle" begin="0.00" color="yellow" fromJunction="5500397798" toJunction="3299570685" end="7200.00" vehsPerHour="1.00"/>
    <flow id="572535366#0_221193362#2" type="bicycle" begin="0.00" color="yellow" fromJunction="5500397798" toJunction="9402040184" end="7200.00" vehsPerHour="1.00"/>
    <flow id="572535366#0_251549522" type="bicycle" begin="0.00" color="yellow" fromJunction="5500397798" toJunction="2334311404" end="7200.00" vehsPerHour="1.00"/>
    <flow id="572535366#0_528541987" type="bicycle" begin="0.00" color="yellow" fromJunction="5500397798" toJunction="4453920661" end="7200.00" vehsPerHour="1.00"/>
    <flow id="572535366#0_758523493" type="bicycle" begin="0.00" color="yellow" fromJunction="5500397798" toJunction="6934116535" end="7200.00" vehsPerHour="1.00"/>
    <flow id="572535366#0_860651478#1" type="bicycle" begin="0.00" color="yellow" fromJunction="5500397798" toJunction="8265965902" end="7200.00" vehsPerHour="1.00"/>
    <flow id="835970515#1_-369126268#0" type="bicycle" begin="0.00" color="yellow" fromJunction="3786186993" toJunction="3906401873" end="7200.00" vehsPerHour="1.00"/>
    <flow id="835970515#1_-418245480#2" type="bicycle" begin="0.00" color="yellow" fromJunction="3786186993" toJunction="9402688180" end="7200.00" vehsPerHour="1.00"/>
    <flow id="835970515#1_-572535366#0" type="bicycle" begin="0.00" color="yellow" fromJunction="3786186993" toJunction="5500397798" end="7200.00" vehsPerHour="1.00"/>
    <flow id="835970515#1_-835970515#1" type="bicycle" begin="0.00" color="yellow" fromJunction="3786186993" toJunction="3786186993" end="7200.00" vehsPerHour="1.00"/>
    <flow id="835970515#1_-860651480#1" type="bicycle" begin="0.00" color="yellow" fromJunction="3786186993" toJunction="5640598882" end="7200.00" vehsPerHour="1.00"/>
    <flow id="835970515#1_154326129#2" type="bicycle" begin="0.00" color="yellow" fromJunction="3786186993" toJunction="3227987100" end="7200.00" vehsPerHour="1.00"/>
    <flow id="835970515#1_171875840#2" type="bicycle" begin="0.00" color="yellow" fromJunction="3786186993" toJunction="3299570685" end="7200.00" vehsPerHour="1.00"/>
    <flow id="835970515#1_221193362#2" type="bicycle" begin="0.00" color="yellow" fromJunction="3786186993" toJunction="9402040184" end="7200.00" vehsPerHour="1.00"/>
    <flow id="835970515#1_251549522" type="bicycle" begin="0.00" color="yellow" fromJunction="3786186993" toJunction="2334311404" end="7200.00" vehsPerHour="1.00"/>
    <flow id="835970515#1_528541987" type="bicycle" begin="0.00" color="yellow" fromJunction="3786186993" toJunction="4453920661" end="7200.00" vehsPerHour="1.00"/>
    <flow id="835970515#1_758523493" type="bicycle" begin="0.00" color="yellow" fromJunction="3786186993" toJunction="6934116535" end="7200.00" vehsPerHour="1.00"/>
    <flow id="835970515#1_860651478#1" type="bicycle" begin="0.00" color="yellow" fromJunction="3786186993" toJunction="8265965902" end="7200.00" vehsPerHour="1.00"/>
    <flow id="860651480#1_-369126268#0" type="bicycle" begin="0.00" color="yellow" fromJunction="5640598882" toJunction="3906401873" end="7200.00" vehsPerHour="1.00"/>
    <flow id="860651480#1_-418245480#2" type="bicycle" begin="0.00" color="yellow" fromJunction="5640598882" toJunction="9402688180" end="7200.00" vehsPerHour="1.00"/>
    <flow id="860651480#1_-572535366#0" type="bicycle" begin="0.00" color="yellow" fromJunction="5640598882" toJunction="5500397798" end="7200.00" vehsPerHour="1.00"/>
    <flow id="860651480#1_-835970515#1" type="bicycle" begin="0.00" color="yellow" fromJunction="5640598882" toJunction="3786186993" end="7200.00" vehsPerHour="1.00"/>
    <flow id="860651480#1_-860651480#1" type="bus" begin="0.00" color="yellow" fromJunction="5640598882" toJunction="5640598882" end="7200.00" vehsPerHour="1.00"/>
    <flow id="860651480#1_154326129#2" type="bus" begin="0.00" color="yellow" fromJunction="5640598882" toJunction="3227987100" end="7200.00" vehsPerHour="1.00"/>
    <flow id="860651480#1_171875840#2" type="bus" begin="0.00" color="yellow" fromJunction="5640598882" toJunction="3299570685" end="7200.00" vehsPerHour="1.00"/>
    <flow id="860651480#1_221193362#2" type="bicycle" begin="0.00" color="yellow" fromJunction="5640598882" toJunction="9402040184" end="7200.00" vehsPerHour="1.00"/>
    <flow id="860651480#1_251549522" type="bus" begin="0.00" color="yellow" fromJunction="5640598882" toJunction="2334311404" end="7200.00" vehsPerHour="1.00"/>
    <flow id="860651480#1_323157164#1" type="pedestrian" begin="0.00" color="yellow" fromJunction="5640598882" toJunction="3299515268" end="7200.00" vehsPerHour="1.00"/>
    <flow id="860651480#1_528541987" type="bicycle" begin="0.00" color="yellow" fromJunction="5640598882" toJunction="4453920661" end="7200.00" vehsPerHour="1.00"/>
    <flow id="860651480#1_758523493" type="bicycle" begin="0.00" color="yellow" fromJunction="5640598882" toJunction="6934116535" end="7200.00" vehsPerHour="1.00"/>
    <flow id="860651480#1_860651478#1" type="bicycle" begin="0.00" color="yellow" fromJunction="5640598882" toJunction="8265965902" end="7200.00" vehsPerHour="1.00"/>
</routes>
